* SPICE3 file created from multiplier.ext - technology: scmos
.SUBCKT multiplier_magic P0 P1 P2 P3 P4 P5 P6 C5 A0 A1 A2 A3 B0 B1 B2 B3 VDD GND
.option scale=0.09u

M1000 VDD B1 AND_magic_10/NOT_magic_0/in AND_magic_10/w_32_19# CMOSP w=8 l=2
+  ad=11360 pd=7384 as=48 ps=28
M1001 AND_magic_10/NOT_magic_0/in A3 VDD AND_magic_10/w_32_19# CMOSP w=8 l=2
+  ad=0 pd=0 as=0 ps=0
M1002 AND_magic_10/NOT_magic_0/in B1 AND_magic_10/NAND_magic_0/a_13_n12# Gnd CMOSN w=4 l=2
+  ad=20 pd=18 as=24 ps=20
M1003 AND_magic_10/NAND_magic_0/a_13_n12# A3 GND Gnd CMOSN w=4 l=2
+  ad=0 pd=0 as=5104 ps=3872
M1004 FA_magic_2/A AND_magic_10/NOT_magic_0/in VDD AND_magic_10/w_32_19# CMOSP w=8 l=2
+  ad=40 pd=26 as=0 ps=0
M1005 FA_magic_2/A AND_magic_10/NOT_magic_0/in GND Gnd CMOSN w=4 l=2
+  ad=20 pd=18 as=0 ps=0
M1006 VDD B2 AND_magic_11/NOT_magic_0/in AND_magic_11/w_32_19# CMOSP w=8 l=2
+  ad=0 pd=0 as=48 ps=28
M1007 AND_magic_11/NOT_magic_0/in A2 VDD AND_magic_11/w_32_19# CMOSP w=8 l=2
+  ad=0 pd=0 as=0 ps=0
M1008 AND_magic_11/NOT_magic_0/in B2 AND_magic_11/NAND_magic_0/a_13_n12# Gnd CMOSN w=4 l=2
+  ad=20 pd=18 as=24 ps=20
M1009 AND_magic_11/NAND_magic_0/a_13_n12# A2 GND Gnd CMOSN w=4 l=2
+  ad=0 pd=0 as=0 ps=0
M1010 FA_magic_2/B AND_magic_11/NOT_magic_0/in VDD AND_magic_11/w_32_19# CMOSP w=8 l=2
+  ad=40 pd=26 as=0 ps=0
M1011 FA_magic_2/B AND_magic_11/NOT_magic_0/in GND Gnd CMOSN w=4 l=2
+  ad=20 pd=18 as=0 ps=0
M1012 FA_magic_0/OR_magic_0/NOT_magic_0/in FA_magic_0/OR_magic_0/B FA_magic_0/OR_magic_0/NOR_magic_0/a_13_6# FA_magic_0/OR_magic_0/NOT_magic_0/w_0_0# CMOSP w=8 l=2
+  ad=40 pd=26 as=48 ps=28
M1013 FA_magic_0/OR_magic_0/NOR_magic_0/a_13_6# FA_magic_0/OR_magic_0/A VDD FA_magic_0/OR_magic_0/NOT_magic_0/w_0_0# CMOSP w=8 l=2
+  ad=0 pd=0 as=0 ps=0
M1014 GND FA_magic_0/OR_magic_0/B FA_magic_0/OR_magic_0/NOT_magic_0/in Gnd CMOSN w=4 l=2
+  ad=0 pd=0 as=24 ps=20
M1015 FA_magic_0/OR_magic_0/NOT_magic_0/in FA_magic_0/OR_magic_0/A GND Gnd CMOSN w=4 l=2
+  ad=0 pd=0 as=0 ps=0
M1016 FA_magic_5/C FA_magic_0/OR_magic_0/NOT_magic_0/in VDD FA_magic_0/OR_magic_0/NOT_magic_0/w_0_0# CMOSP w=8 l=2
+  ad=40 pd=26 as=0 ps=0
M1017 FA_magic_5/C FA_magic_0/OR_magic_0/NOT_magic_0/in GND Gnd CMOSN w=4 l=2
+  ad=20 pd=18 as=0 ps=0
M1018 VDD FA_magic_0/B FA_magic_0/HA_magic_0/XOR_magic_0/NAND_magic_3/A FA_magic_0/HA_magic_0/XOR_magic_0/NAND_magic_0/w_0_0# CMOSP w=8 l=2
+  ad=0 pd=0 as=48 ps=28
M1019 FA_magic_0/HA_magic_0/XOR_magic_0/NAND_magic_3/A FA_magic_0/A VDD FA_magic_0/HA_magic_0/XOR_magic_0/NAND_magic_0/w_0_0# CMOSP w=8 l=2
+  ad=0 pd=0 as=0 ps=0
M1020 FA_magic_0/HA_magic_0/XOR_magic_0/NAND_magic_3/A FA_magic_0/B FA_magic_0/HA_magic_0/XOR_magic_0/NAND_magic_0/a_13_n12# Gnd CMOSN w=4 l=2
+  ad=20 pd=18 as=24 ps=20
M1021 FA_magic_0/HA_magic_0/XOR_magic_0/NAND_magic_0/a_13_n12# FA_magic_0/A GND Gnd CMOSN w=4 l=2
+  ad=0 pd=0 as=0 ps=0
M1022 VDD FA_magic_0/HA_magic_0/XOR_magic_0/NAND_magic_3/A FA_magic_0/HA_magic_0/XOR_magic_0/NAND_magic_2/A FA_magic_0/HA_magic_0/XOR_magic_0/NAND_magic_1/w_0_0# CMOSP w=8 l=2
+  ad=0 pd=0 as=48 ps=28
M1023 FA_magic_0/HA_magic_0/XOR_magic_0/NAND_magic_2/A FA_magic_0/A VDD FA_magic_0/HA_magic_0/XOR_magic_0/NAND_magic_1/w_0_0# CMOSP w=8 l=2
+  ad=0 pd=0 as=0 ps=0
M1024 FA_magic_0/HA_magic_0/XOR_magic_0/NAND_magic_2/A FA_magic_0/HA_magic_0/XOR_magic_0/NAND_magic_3/A FA_magic_0/HA_magic_0/XOR_magic_0/NAND_magic_1/a_13_n12# Gnd CMOSN w=4 l=2
+  ad=20 pd=18 as=24 ps=20
M1025 FA_magic_0/HA_magic_0/XOR_magic_0/NAND_magic_1/a_13_n12# FA_magic_0/A GND Gnd CMOSN w=4 l=2
+  ad=0 pd=0 as=0 ps=0
M1026 VDD FA_magic_0/HA_magic_0/XOR_magic_0/NAND_magic_2/B FA_magic_0/HA_magic_1/A FA_magic_0/HA_magic_0/XOR_magic_0/NAND_magic_2/w_0_0# CMOSP w=8 l=2
+  ad=0 pd=0 as=48 ps=28
M1027 FA_magic_0/HA_magic_1/A FA_magic_0/HA_magic_0/XOR_magic_0/NAND_magic_2/A VDD FA_magic_0/HA_magic_0/XOR_magic_0/NAND_magic_2/w_0_0# CMOSP w=8 l=2
+  ad=0 pd=0 as=0 ps=0
M1028 FA_magic_0/HA_magic_1/A FA_magic_0/HA_magic_0/XOR_magic_0/NAND_magic_2/B FA_magic_0/HA_magic_0/XOR_magic_0/NAND_magic_2/a_13_n12# Gnd CMOSN w=4 l=2
+  ad=20 pd=18 as=24 ps=20
M1029 FA_magic_0/HA_magic_0/XOR_magic_0/NAND_magic_2/a_13_n12# FA_magic_0/HA_magic_0/XOR_magic_0/NAND_magic_2/A GND Gnd CMOSN w=4 l=2
+  ad=0 pd=0 as=0 ps=0
M1030 VDD FA_magic_0/B FA_magic_0/HA_magic_0/XOR_magic_0/NAND_magic_2/B FA_magic_0/HA_magic_0/XOR_magic_0/NAND_magic_3/w_0_0# CMOSP w=8 l=2
+  ad=0 pd=0 as=48 ps=28
M1031 FA_magic_0/HA_magic_0/XOR_magic_0/NAND_magic_2/B FA_magic_0/HA_magic_0/XOR_magic_0/NAND_magic_3/A VDD FA_magic_0/HA_magic_0/XOR_magic_0/NAND_magic_3/w_0_0# CMOSP w=8 l=2
+  ad=0 pd=0 as=0 ps=0
M1032 FA_magic_0/HA_magic_0/XOR_magic_0/NAND_magic_2/B FA_magic_0/B FA_magic_0/HA_magic_0/XOR_magic_0/NAND_magic_3/a_13_n12# Gnd CMOSN w=4 l=2
+  ad=20 pd=18 as=24 ps=20
M1033 FA_magic_0/HA_magic_0/XOR_magic_0/NAND_magic_3/a_13_n12# FA_magic_0/HA_magic_0/XOR_magic_0/NAND_magic_3/A GND Gnd CMOSN w=4 l=2
+  ad=0 pd=0 as=0 ps=0
M1034 VDD FA_magic_0/B FA_magic_0/HA_magic_0/AND_magic_0/NOT_magic_0/in FA_magic_0/HA_magic_0/AND_magic_0/w_32_19# CMOSP w=8 l=2
+  ad=0 pd=0 as=48 ps=28
M1035 FA_magic_0/HA_magic_0/AND_magic_0/NOT_magic_0/in FA_magic_0/A VDD FA_magic_0/HA_magic_0/AND_magic_0/w_32_19# CMOSP w=8 l=2
+  ad=0 pd=0 as=0 ps=0
M1036 FA_magic_0/HA_magic_0/AND_magic_0/NOT_magic_0/in FA_magic_0/B FA_magic_0/HA_magic_0/AND_magic_0/NAND_magic_0/a_13_n12# Gnd CMOSN w=4 l=2
+  ad=20 pd=18 as=24 ps=20
M1037 FA_magic_0/HA_magic_0/AND_magic_0/NAND_magic_0/a_13_n12# FA_magic_0/A GND Gnd CMOSN w=4 l=2
+  ad=0 pd=0 as=0 ps=0
M1038 FA_magic_0/OR_magic_0/B FA_magic_0/HA_magic_0/AND_magic_0/NOT_magic_0/in VDD FA_magic_0/HA_magic_0/AND_magic_0/w_32_19# CMOSP w=8 l=2
+  ad=40 pd=26 as=0 ps=0
M1039 FA_magic_0/OR_magic_0/B FA_magic_0/HA_magic_0/AND_magic_0/NOT_magic_0/in GND Gnd CMOSN w=4 l=2
+  ad=20 pd=18 as=0 ps=0
M1040 VDD FA_magic_0/C FA_magic_0/HA_magic_1/XOR_magic_0/NAND_magic_3/A FA_magic_0/HA_magic_1/XOR_magic_0/NAND_magic_0/w_0_0# CMOSP w=8 l=2
+  ad=0 pd=0 as=48 ps=28
M1041 FA_magic_0/HA_magic_1/XOR_magic_0/NAND_magic_3/A FA_magic_0/HA_magic_1/A VDD FA_magic_0/HA_magic_1/XOR_magic_0/NAND_magic_0/w_0_0# CMOSP w=8 l=2
+  ad=0 pd=0 as=0 ps=0
M1042 FA_magic_0/HA_magic_1/XOR_magic_0/NAND_magic_3/A FA_magic_0/C FA_magic_0/HA_magic_1/XOR_magic_0/NAND_magic_0/a_13_n12# Gnd CMOSN w=4 l=2
+  ad=20 pd=18 as=24 ps=20
M1043 FA_magic_0/HA_magic_1/XOR_magic_0/NAND_magic_0/a_13_n12# FA_magic_0/HA_magic_1/A GND Gnd CMOSN w=4 l=2
+  ad=0 pd=0 as=0 ps=0
M1044 VDD FA_magic_0/HA_magic_1/XOR_magic_0/NAND_magic_3/A FA_magic_0/HA_magic_1/XOR_magic_0/NAND_magic_2/A FA_magic_0/HA_magic_1/XOR_magic_0/NAND_magic_1/w_0_0# CMOSP w=8 l=2
+  ad=0 pd=0 as=48 ps=28
M1045 FA_magic_0/HA_magic_1/XOR_magic_0/NAND_magic_2/A FA_magic_0/HA_magic_1/A VDD FA_magic_0/HA_magic_1/XOR_magic_0/NAND_magic_1/w_0_0# CMOSP w=8 l=2
+  ad=0 pd=0 as=0 ps=0
M1046 FA_magic_0/HA_magic_1/XOR_magic_0/NAND_magic_2/A FA_magic_0/HA_magic_1/XOR_magic_0/NAND_magic_3/A FA_magic_0/HA_magic_1/XOR_magic_0/NAND_magic_1/a_13_n12# Gnd CMOSN w=4 l=2
+  ad=20 pd=18 as=24 ps=20
M1047 FA_magic_0/HA_magic_1/XOR_magic_0/NAND_magic_1/a_13_n12# FA_magic_0/HA_magic_1/A GND Gnd CMOSN w=4 l=2
+  ad=0 pd=0 as=0 ps=0
M1048 VDD FA_magic_0/HA_magic_1/XOR_magic_0/NAND_magic_2/B P2 FA_magic_0/HA_magic_1/XOR_magic_0/NAND_magic_2/w_0_0# CMOSP w=8 l=2
+  ad=0 pd=0 as=48 ps=28
M1049 P2 FA_magic_0/HA_magic_1/XOR_magic_0/NAND_magic_2/A VDD FA_magic_0/HA_magic_1/XOR_magic_0/NAND_magic_2/w_0_0# CMOSP w=8 l=2
+  ad=0 pd=0 as=0 ps=0
M1050 P2 FA_magic_0/HA_magic_1/XOR_magic_0/NAND_magic_2/B FA_magic_0/HA_magic_1/XOR_magic_0/NAND_magic_2/a_13_n12# Gnd CMOSN w=4 l=2
+  ad=20 pd=18 as=24 ps=20
M1051 FA_magic_0/HA_magic_1/XOR_magic_0/NAND_magic_2/a_13_n12# FA_magic_0/HA_magic_1/XOR_magic_0/NAND_magic_2/A GND Gnd CMOSN w=4 l=2
+  ad=0 pd=0 as=0 ps=0
M1052 VDD FA_magic_0/C FA_magic_0/HA_magic_1/XOR_magic_0/NAND_magic_2/B FA_magic_0/HA_magic_1/XOR_magic_0/NAND_magic_3/w_0_0# CMOSP w=8 l=2
+  ad=0 pd=0 as=48 ps=28
M1053 FA_magic_0/HA_magic_1/XOR_magic_0/NAND_magic_2/B FA_magic_0/HA_magic_1/XOR_magic_0/NAND_magic_3/A VDD FA_magic_0/HA_magic_1/XOR_magic_0/NAND_magic_3/w_0_0# CMOSP w=8 l=2
+  ad=0 pd=0 as=0 ps=0
M1054 FA_magic_0/HA_magic_1/XOR_magic_0/NAND_magic_2/B FA_magic_0/C FA_magic_0/HA_magic_1/XOR_magic_0/NAND_magic_3/a_13_n12# Gnd CMOSN w=4 l=2
+  ad=20 pd=18 as=24 ps=20
M1055 FA_magic_0/HA_magic_1/XOR_magic_0/NAND_magic_3/a_13_n12# FA_magic_0/HA_magic_1/XOR_magic_0/NAND_magic_3/A GND Gnd CMOSN w=4 l=2
+  ad=0 pd=0 as=0 ps=0
M1056 VDD FA_magic_0/C FA_magic_0/HA_magic_1/AND_magic_0/NOT_magic_0/in FA_magic_0/HA_magic_1/AND_magic_0/w_32_19# CMOSP w=8 l=2
+  ad=0 pd=0 as=48 ps=28
M1057 FA_magic_0/HA_magic_1/AND_magic_0/NOT_magic_0/in FA_magic_0/HA_magic_1/A VDD FA_magic_0/HA_magic_1/AND_magic_0/w_32_19# CMOSP w=8 l=2
+  ad=0 pd=0 as=0 ps=0
M1058 FA_magic_0/HA_magic_1/AND_magic_0/NOT_magic_0/in FA_magic_0/C FA_magic_0/HA_magic_1/AND_magic_0/NAND_magic_0/a_13_n12# Gnd CMOSN w=4 l=2
+  ad=20 pd=18 as=24 ps=20
M1059 FA_magic_0/HA_magic_1/AND_magic_0/NAND_magic_0/a_13_n12# FA_magic_0/HA_magic_1/A GND Gnd CMOSN w=4 l=2
+  ad=0 pd=0 as=0 ps=0
M1060 FA_magic_0/OR_magic_0/A FA_magic_0/HA_magic_1/AND_magic_0/NOT_magic_0/in VDD FA_magic_0/HA_magic_1/AND_magic_0/w_32_19# CMOSP w=8 l=2
+  ad=40 pd=26 as=0 ps=0
M1061 FA_magic_0/OR_magic_0/A FA_magic_0/HA_magic_1/AND_magic_0/NOT_magic_0/in GND Gnd CMOSN w=4 l=2
+  ad=20 pd=18 as=0 ps=0
M1062 VDD B3 AND_magic_12/NOT_magic_0/in AND_magic_12/w_32_19# CMOSP w=8 l=2
+  ad=0 pd=0 as=48 ps=28
M1063 AND_magic_12/NOT_magic_0/in A1 VDD AND_magic_12/w_32_19# CMOSP w=8 l=2
+  ad=0 pd=0 as=0 ps=0
M1064 AND_magic_12/NOT_magic_0/in B3 AND_magic_12/NAND_magic_0/a_13_n12# Gnd CMOSN w=4 l=2
+  ad=20 pd=18 as=24 ps=20
M1065 AND_magic_12/NAND_magic_0/a_13_n12# A1 GND Gnd CMOSN w=4 l=2
+  ad=0 pd=0 as=0 ps=0
M1066 FA_magic_6/B AND_magic_12/NOT_magic_0/in VDD AND_magic_12/w_32_19# CMOSP w=8 l=2
+  ad=40 pd=26 as=0 ps=0
M1067 FA_magic_6/B AND_magic_12/NOT_magic_0/in GND Gnd CMOSN w=4 l=2
+  ad=20 pd=18 as=0 ps=0
M1068 FA_magic_1/OR_magic_0/NOT_magic_0/in FA_magic_1/OR_magic_0/B FA_magic_1/OR_magic_0/NOR_magic_0/a_13_6# FA_magic_1/OR_magic_0/NOT_magic_0/w_0_0# CMOSP w=8 l=2
+  ad=40 pd=26 as=48 ps=28
M1069 FA_magic_1/OR_magic_0/NOR_magic_0/a_13_6# FA_magic_1/OR_magic_0/A VDD FA_magic_1/OR_magic_0/NOT_magic_0/w_0_0# CMOSP w=8 l=2
+  ad=0 pd=0 as=0 ps=0
M1070 GND FA_magic_1/OR_magic_0/B FA_magic_1/OR_magic_0/NOT_magic_0/in Gnd CMOSN w=4 l=2
+  ad=0 pd=0 as=24 ps=20
M1071 FA_magic_1/OR_magic_0/NOT_magic_0/in FA_magic_1/OR_magic_0/A GND Gnd CMOSN w=4 l=2
+  ad=0 pd=0 as=0 ps=0
M1072 FA_magic_6/C FA_magic_1/OR_magic_0/NOT_magic_0/in VDD FA_magic_1/OR_magic_0/NOT_magic_0/w_0_0# CMOSP w=8 l=2
+  ad=40 pd=26 as=0 ps=0
M1073 FA_magic_6/C FA_magic_1/OR_magic_0/NOT_magic_0/in GND Gnd CMOSN w=4 l=2
+  ad=20 pd=18 as=0 ps=0
M1074 VDD FA_magic_1/B FA_magic_1/HA_magic_0/XOR_magic_0/NAND_magic_3/A FA_magic_1/HA_magic_0/XOR_magic_0/NAND_magic_0/w_0_0# CMOSP w=8 l=2
+  ad=0 pd=0 as=48 ps=28
M1075 FA_magic_1/HA_magic_0/XOR_magic_0/NAND_magic_3/A FA_magic_1/A VDD FA_magic_1/HA_magic_0/XOR_magic_0/NAND_magic_0/w_0_0# CMOSP w=8 l=2
+  ad=0 pd=0 as=0 ps=0
M1076 FA_magic_1/HA_magic_0/XOR_magic_0/NAND_magic_3/A FA_magic_1/B FA_magic_1/HA_magic_0/XOR_magic_0/NAND_magic_0/a_13_n12# Gnd CMOSN w=4 l=2
+  ad=20 pd=18 as=24 ps=20
M1077 FA_magic_1/HA_magic_0/XOR_magic_0/NAND_magic_0/a_13_n12# FA_magic_1/A GND Gnd CMOSN w=4 l=2
+  ad=0 pd=0 as=0 ps=0
M1078 VDD FA_magic_1/HA_magic_0/XOR_magic_0/NAND_magic_3/A FA_magic_1/HA_magic_0/XOR_magic_0/NAND_magic_2/A FA_magic_1/HA_magic_0/XOR_magic_0/NAND_magic_1/w_0_0# CMOSP w=8 l=2
+  ad=0 pd=0 as=48 ps=28
M1079 FA_magic_1/HA_magic_0/XOR_magic_0/NAND_magic_2/A FA_magic_1/A VDD FA_magic_1/HA_magic_0/XOR_magic_0/NAND_magic_1/w_0_0# CMOSP w=8 l=2
+  ad=0 pd=0 as=0 ps=0
M1080 FA_magic_1/HA_magic_0/XOR_magic_0/NAND_magic_2/A FA_magic_1/HA_magic_0/XOR_magic_0/NAND_magic_3/A FA_magic_1/HA_magic_0/XOR_magic_0/NAND_magic_1/a_13_n12# Gnd CMOSN w=4 l=2
+  ad=20 pd=18 as=24 ps=20
M1081 FA_magic_1/HA_magic_0/XOR_magic_0/NAND_magic_1/a_13_n12# FA_magic_1/A GND Gnd CMOSN w=4 l=2
+  ad=0 pd=0 as=0 ps=0
M1082 VDD FA_magic_1/HA_magic_0/XOR_magic_0/NAND_magic_2/B FA_magic_1/HA_magic_1/A FA_magic_1/HA_magic_0/XOR_magic_0/NAND_magic_2/w_0_0# CMOSP w=8 l=2
+  ad=0 pd=0 as=48 ps=28
M1083 FA_magic_1/HA_magic_1/A FA_magic_1/HA_magic_0/XOR_magic_0/NAND_magic_2/A VDD FA_magic_1/HA_magic_0/XOR_magic_0/NAND_magic_2/w_0_0# CMOSP w=8 l=2
+  ad=0 pd=0 as=0 ps=0
M1084 FA_magic_1/HA_magic_1/A FA_magic_1/HA_magic_0/XOR_magic_0/NAND_magic_2/B FA_magic_1/HA_magic_0/XOR_magic_0/NAND_magic_2/a_13_n12# Gnd CMOSN w=4 l=2
+  ad=20 pd=18 as=24 ps=20
M1085 FA_magic_1/HA_magic_0/XOR_magic_0/NAND_magic_2/a_13_n12# FA_magic_1/HA_magic_0/XOR_magic_0/NAND_magic_2/A GND Gnd CMOSN w=4 l=2
+  ad=0 pd=0 as=0 ps=0
M1086 VDD FA_magic_1/B FA_magic_1/HA_magic_0/XOR_magic_0/NAND_magic_2/B FA_magic_1/HA_magic_0/XOR_magic_0/NAND_magic_3/w_0_0# CMOSP w=8 l=2
+  ad=0 pd=0 as=48 ps=28
M1087 FA_magic_1/HA_magic_0/XOR_magic_0/NAND_magic_2/B FA_magic_1/HA_magic_0/XOR_magic_0/NAND_magic_3/A VDD FA_magic_1/HA_magic_0/XOR_magic_0/NAND_magic_3/w_0_0# CMOSP w=8 l=2
+  ad=0 pd=0 as=0 ps=0
M1088 FA_magic_1/HA_magic_0/XOR_magic_0/NAND_magic_2/B FA_magic_1/B FA_magic_1/HA_magic_0/XOR_magic_0/NAND_magic_3/a_13_n12# Gnd CMOSN w=4 l=2
+  ad=20 pd=18 as=24 ps=20
M1089 FA_magic_1/HA_magic_0/XOR_magic_0/NAND_magic_3/a_13_n12# FA_magic_1/HA_magic_0/XOR_magic_0/NAND_magic_3/A GND Gnd CMOSN w=4 l=2
+  ad=0 pd=0 as=0 ps=0
M1090 VDD FA_magic_1/B FA_magic_1/HA_magic_0/AND_magic_0/NOT_magic_0/in FA_magic_1/HA_magic_0/AND_magic_0/w_32_19# CMOSP w=8 l=2
+  ad=0 pd=0 as=48 ps=28
M1091 FA_magic_1/HA_magic_0/AND_magic_0/NOT_magic_0/in FA_magic_1/A VDD FA_magic_1/HA_magic_0/AND_magic_0/w_32_19# CMOSP w=8 l=2
+  ad=0 pd=0 as=0 ps=0
M1092 FA_magic_1/HA_magic_0/AND_magic_0/NOT_magic_0/in FA_magic_1/B FA_magic_1/HA_magic_0/AND_magic_0/NAND_magic_0/a_13_n12# Gnd CMOSN w=4 l=2
+  ad=20 pd=18 as=24 ps=20
M1093 FA_magic_1/HA_magic_0/AND_magic_0/NAND_magic_0/a_13_n12# FA_magic_1/A GND Gnd CMOSN w=4 l=2
+  ad=0 pd=0 as=0 ps=0
M1094 FA_magic_1/OR_magic_0/B FA_magic_1/HA_magic_0/AND_magic_0/NOT_magic_0/in VDD FA_magic_1/HA_magic_0/AND_magic_0/w_32_19# CMOSP w=8 l=2
+  ad=40 pd=26 as=0 ps=0
M1095 FA_magic_1/OR_magic_0/B FA_magic_1/HA_magic_0/AND_magic_0/NOT_magic_0/in GND Gnd CMOSN w=4 l=2
+  ad=20 pd=18 as=0 ps=0
M1096 VDD FA_magic_1/C FA_magic_1/HA_magic_1/XOR_magic_0/NAND_magic_3/A FA_magic_1/HA_magic_1/XOR_magic_0/NAND_magic_0/w_0_0# CMOSP w=8 l=2
+  ad=0 pd=0 as=48 ps=28
M1097 FA_magic_1/HA_magic_1/XOR_magic_0/NAND_magic_3/A FA_magic_1/HA_magic_1/A VDD FA_magic_1/HA_magic_1/XOR_magic_0/NAND_magic_0/w_0_0# CMOSP w=8 l=2
+  ad=0 pd=0 as=0 ps=0
M1098 FA_magic_1/HA_magic_1/XOR_magic_0/NAND_magic_3/A FA_magic_1/C FA_magic_1/HA_magic_1/XOR_magic_0/NAND_magic_0/a_13_n12# Gnd CMOSN w=4 l=2
+  ad=20 pd=18 as=24 ps=20
M1099 FA_magic_1/HA_magic_1/XOR_magic_0/NAND_magic_0/a_13_n12# FA_magic_1/HA_magic_1/A GND Gnd CMOSN w=4 l=2
+  ad=0 pd=0 as=0 ps=0
M1100 VDD FA_magic_1/HA_magic_1/XOR_magic_0/NAND_magic_3/A FA_magic_1/HA_magic_1/XOR_magic_0/NAND_magic_2/A FA_magic_1/HA_magic_1/XOR_magic_0/NAND_magic_1/w_0_0# CMOSP w=8 l=2
+  ad=0 pd=0 as=48 ps=28
M1101 FA_magic_1/HA_magic_1/XOR_magic_0/NAND_magic_2/A FA_magic_1/HA_magic_1/A VDD FA_magic_1/HA_magic_1/XOR_magic_0/NAND_magic_1/w_0_0# CMOSP w=8 l=2
+  ad=0 pd=0 as=0 ps=0
M1102 FA_magic_1/HA_magic_1/XOR_magic_0/NAND_magic_2/A FA_magic_1/HA_magic_1/XOR_magic_0/NAND_magic_3/A FA_magic_1/HA_magic_1/XOR_magic_0/NAND_magic_1/a_13_n12# Gnd CMOSN w=4 l=2
+  ad=20 pd=18 as=24 ps=20
M1103 FA_magic_1/HA_magic_1/XOR_magic_0/NAND_magic_1/a_13_n12# FA_magic_1/HA_magic_1/A GND Gnd CMOSN w=4 l=2
+  ad=0 pd=0 as=0 ps=0
M1104 VDD FA_magic_1/HA_magic_1/XOR_magic_0/NAND_magic_2/B FA_magic_5/A FA_magic_1/HA_magic_1/XOR_magic_0/NAND_magic_2/w_0_0# CMOSP w=8 l=2
+  ad=0 pd=0 as=48 ps=28
M1105 FA_magic_5/A FA_magic_1/HA_magic_1/XOR_magic_0/NAND_magic_2/A VDD FA_magic_1/HA_magic_1/XOR_magic_0/NAND_magic_2/w_0_0# CMOSP w=8 l=2
+  ad=0 pd=0 as=0 ps=0
M1106 FA_magic_5/A FA_magic_1/HA_magic_1/XOR_magic_0/NAND_magic_2/B FA_magic_1/HA_magic_1/XOR_magic_0/NAND_magic_2/a_13_n12# Gnd CMOSN w=4 l=2
+  ad=20 pd=18 as=24 ps=20
M1107 FA_magic_1/HA_magic_1/XOR_magic_0/NAND_magic_2/a_13_n12# FA_magic_1/HA_magic_1/XOR_magic_0/NAND_magic_2/A GND Gnd CMOSN w=4 l=2
+  ad=0 pd=0 as=0 ps=0
M1108 VDD FA_magic_1/C FA_magic_1/HA_magic_1/XOR_magic_0/NAND_magic_2/B FA_magic_1/HA_magic_1/XOR_magic_0/NAND_magic_3/w_0_0# CMOSP w=8 l=2
+  ad=0 pd=0 as=48 ps=28
M1109 FA_magic_1/HA_magic_1/XOR_magic_0/NAND_magic_2/B FA_magic_1/HA_magic_1/XOR_magic_0/NAND_magic_3/A VDD FA_magic_1/HA_magic_1/XOR_magic_0/NAND_magic_3/w_0_0# CMOSP w=8 l=2
+  ad=0 pd=0 as=0 ps=0
M1110 FA_magic_1/HA_magic_1/XOR_magic_0/NAND_magic_2/B FA_magic_1/C FA_magic_1/HA_magic_1/XOR_magic_0/NAND_magic_3/a_13_n12# Gnd CMOSN w=4 l=2
+  ad=20 pd=18 as=24 ps=20
M1111 FA_magic_1/HA_magic_1/XOR_magic_0/NAND_magic_3/a_13_n12# FA_magic_1/HA_magic_1/XOR_magic_0/NAND_magic_3/A GND Gnd CMOSN w=4 l=2
+  ad=0 pd=0 as=0 ps=0
M1112 VDD FA_magic_1/C FA_magic_1/HA_magic_1/AND_magic_0/NOT_magic_0/in FA_magic_1/HA_magic_1/AND_magic_0/w_32_19# CMOSP w=8 l=2
+  ad=0 pd=0 as=48 ps=28
M1113 FA_magic_1/HA_magic_1/AND_magic_0/NOT_magic_0/in FA_magic_1/HA_magic_1/A VDD FA_magic_1/HA_magic_1/AND_magic_0/w_32_19# CMOSP w=8 l=2
+  ad=0 pd=0 as=0 ps=0
M1114 FA_magic_1/HA_magic_1/AND_magic_0/NOT_magic_0/in FA_magic_1/C FA_magic_1/HA_magic_1/AND_magic_0/NAND_magic_0/a_13_n12# Gnd CMOSN w=4 l=2
+  ad=20 pd=18 as=24 ps=20
M1115 FA_magic_1/HA_magic_1/AND_magic_0/NAND_magic_0/a_13_n12# FA_magic_1/HA_magic_1/A GND Gnd CMOSN w=4 l=2
+  ad=0 pd=0 as=0 ps=0
M1116 FA_magic_1/OR_magic_0/A FA_magic_1/HA_magic_1/AND_magic_0/NOT_magic_0/in VDD FA_magic_1/HA_magic_1/AND_magic_0/w_32_19# CMOSP w=8 l=2
+  ad=40 pd=26 as=0 ps=0
M1117 FA_magic_1/OR_magic_0/A FA_magic_1/HA_magic_1/AND_magic_0/NOT_magic_0/in GND Gnd CMOSN w=4 l=2
+  ad=20 pd=18 as=0 ps=0
M1118 VDD B2 AND_magic_13/NOT_magic_0/in AND_magic_13/w_32_19# CMOSP w=8 l=2
+  ad=0 pd=0 as=48 ps=28
M1119 AND_magic_13/NOT_magic_0/in A3 VDD AND_magic_13/w_32_19# CMOSP w=8 l=2
+  ad=0 pd=0 as=0 ps=0
M1120 AND_magic_13/NOT_magic_0/in B2 AND_magic_13/NAND_magic_0/a_13_n12# Gnd CMOSN w=4 l=2
+  ad=20 pd=18 as=24 ps=20
M1121 AND_magic_13/NAND_magic_0/a_13_n12# A3 GND Gnd CMOSN w=4 l=2
+  ad=0 pd=0 as=0 ps=0
M1122 FA_magic_3/A AND_magic_13/NOT_magic_0/in VDD AND_magic_13/w_32_19# CMOSP w=8 l=2
+  ad=40 pd=26 as=0 ps=0
M1123 FA_magic_3/A AND_magic_13/NOT_magic_0/in GND Gnd CMOSN w=4 l=2
+  ad=20 pd=18 as=0 ps=0
M1124 VDD B0 AND_magic_0/NOT_magic_0/in AND_magic_0/w_32_19# CMOSP w=8 l=2
+  ad=0 pd=0 as=48 ps=28
M1125 AND_magic_0/NOT_magic_0/in A0 VDD AND_magic_0/w_32_19# CMOSP w=8 l=2
+  ad=0 pd=0 as=0 ps=0
M1126 AND_magic_0/NOT_magic_0/in B0 AND_magic_0/NAND_magic_0/a_13_n12# Gnd CMOSN w=4 l=2
+  ad=20 pd=18 as=24 ps=20
M1127 AND_magic_0/NAND_magic_0/a_13_n12# A0 GND Gnd CMOSN w=4 l=2
+  ad=0 pd=0 as=0 ps=0
M1128 P0 AND_magic_0/NOT_magic_0/in VDD AND_magic_0/w_32_19# CMOSP w=8 l=2
+  ad=40 pd=26 as=0 ps=0
M1129 P0 AND_magic_0/NOT_magic_0/in GND Gnd CMOSN w=4 l=2
+  ad=20 pd=18 as=0 ps=0
M1130 FA_magic_2/OR_magic_0/NOT_magic_0/in FA_magic_2/OR_magic_0/B FA_magic_2/OR_magic_0/NOR_magic_0/a_13_6# FA_magic_2/OR_magic_0/NOT_magic_0/w_0_0# CMOSP w=8 l=2
+  ad=40 pd=26 as=48 ps=28
M1131 FA_magic_2/OR_magic_0/NOR_magic_0/a_13_6# FA_magic_2/OR_magic_0/A VDD FA_magic_2/OR_magic_0/NOT_magic_0/w_0_0# CMOSP w=8 l=2
+  ad=0 pd=0 as=0 ps=0
M1132 GND FA_magic_2/OR_magic_0/B FA_magic_2/OR_magic_0/NOT_magic_0/in Gnd CMOSN w=4 l=2
+  ad=0 pd=0 as=24 ps=20
M1133 FA_magic_2/OR_magic_0/NOT_magic_0/in FA_magic_2/OR_magic_0/A GND Gnd CMOSN w=4 l=2
+  ad=0 pd=0 as=0 ps=0
M1134 FA_magic_3/C FA_magic_2/OR_magic_0/NOT_magic_0/in VDD FA_magic_2/OR_magic_0/NOT_magic_0/w_0_0# CMOSP w=8 l=2
+  ad=40 pd=26 as=0 ps=0
M1135 FA_magic_3/C FA_magic_2/OR_magic_0/NOT_magic_0/in GND Gnd CMOSN w=4 l=2
+  ad=20 pd=18 as=0 ps=0
M1136 VDD FA_magic_2/B FA_magic_2/HA_magic_0/XOR_magic_0/NAND_magic_3/A FA_magic_2/HA_magic_0/XOR_magic_0/NAND_magic_0/w_0_0# CMOSP w=8 l=2
+  ad=0 pd=0 as=48 ps=28
M1137 FA_magic_2/HA_magic_0/XOR_magic_0/NAND_magic_3/A FA_magic_2/A VDD FA_magic_2/HA_magic_0/XOR_magic_0/NAND_magic_0/w_0_0# CMOSP w=8 l=2
+  ad=0 pd=0 as=0 ps=0
M1138 FA_magic_2/HA_magic_0/XOR_magic_0/NAND_magic_3/A FA_magic_2/B FA_magic_2/HA_magic_0/XOR_magic_0/NAND_magic_0/a_13_n12# Gnd CMOSN w=4 l=2
+  ad=20 pd=18 as=24 ps=20
M1139 FA_magic_2/HA_magic_0/XOR_magic_0/NAND_magic_0/a_13_n12# FA_magic_2/A GND Gnd CMOSN w=4 l=2
+  ad=0 pd=0 as=0 ps=0
M1140 VDD FA_magic_2/HA_magic_0/XOR_magic_0/NAND_magic_3/A FA_magic_2/HA_magic_0/XOR_magic_0/NAND_magic_2/A FA_magic_2/HA_magic_0/XOR_magic_0/NAND_magic_1/w_0_0# CMOSP w=8 l=2
+  ad=0 pd=0 as=48 ps=28
M1141 FA_magic_2/HA_magic_0/XOR_magic_0/NAND_magic_2/A FA_magic_2/A VDD FA_magic_2/HA_magic_0/XOR_magic_0/NAND_magic_1/w_0_0# CMOSP w=8 l=2
+  ad=0 pd=0 as=0 ps=0
M1142 FA_magic_2/HA_magic_0/XOR_magic_0/NAND_magic_2/A FA_magic_2/HA_magic_0/XOR_magic_0/NAND_magic_3/A FA_magic_2/HA_magic_0/XOR_magic_0/NAND_magic_1/a_13_n12# Gnd CMOSN w=4 l=2
+  ad=20 pd=18 as=24 ps=20
M1143 FA_magic_2/HA_magic_0/XOR_magic_0/NAND_magic_1/a_13_n12# FA_magic_2/A GND Gnd CMOSN w=4 l=2
+  ad=0 pd=0 as=0 ps=0
M1144 VDD FA_magic_2/HA_magic_0/XOR_magic_0/NAND_magic_2/B FA_magic_2/HA_magic_1/A FA_magic_2/HA_magic_0/XOR_magic_0/NAND_magic_2/w_0_0# CMOSP w=8 l=2
+  ad=0 pd=0 as=48 ps=28
M1145 FA_magic_2/HA_magic_1/A FA_magic_2/HA_magic_0/XOR_magic_0/NAND_magic_2/A VDD FA_magic_2/HA_magic_0/XOR_magic_0/NAND_magic_2/w_0_0# CMOSP w=8 l=2
+  ad=0 pd=0 as=0 ps=0
M1146 FA_magic_2/HA_magic_1/A FA_magic_2/HA_magic_0/XOR_magic_0/NAND_magic_2/B FA_magic_2/HA_magic_0/XOR_magic_0/NAND_magic_2/a_13_n12# Gnd CMOSN w=4 l=2
+  ad=20 pd=18 as=24 ps=20
M1147 FA_magic_2/HA_magic_0/XOR_magic_0/NAND_magic_2/a_13_n12# FA_magic_2/HA_magic_0/XOR_magic_0/NAND_magic_2/A GND Gnd CMOSN w=4 l=2
+  ad=0 pd=0 as=0 ps=0
M1148 VDD FA_magic_2/B FA_magic_2/HA_magic_0/XOR_magic_0/NAND_magic_2/B FA_magic_2/HA_magic_0/XOR_magic_0/NAND_magic_3/w_0_0# CMOSP w=8 l=2
+  ad=0 pd=0 as=48 ps=28
M1149 FA_magic_2/HA_magic_0/XOR_magic_0/NAND_magic_2/B FA_magic_2/HA_magic_0/XOR_magic_0/NAND_magic_3/A VDD FA_magic_2/HA_magic_0/XOR_magic_0/NAND_magic_3/w_0_0# CMOSP w=8 l=2
+  ad=0 pd=0 as=0 ps=0
M1150 FA_magic_2/HA_magic_0/XOR_magic_0/NAND_magic_2/B FA_magic_2/B FA_magic_2/HA_magic_0/XOR_magic_0/NAND_magic_3/a_13_n12# Gnd CMOSN w=4 l=2
+  ad=20 pd=18 as=24 ps=20
M1151 FA_magic_2/HA_magic_0/XOR_magic_0/NAND_magic_3/a_13_n12# FA_magic_2/HA_magic_0/XOR_magic_0/NAND_magic_3/A GND Gnd CMOSN w=4 l=2
+  ad=0 pd=0 as=0 ps=0
M1152 VDD FA_magic_2/B FA_magic_2/HA_magic_0/AND_magic_0/NOT_magic_0/in FA_magic_2/HA_magic_0/AND_magic_0/w_32_19# CMOSP w=8 l=2
+  ad=0 pd=0 as=48 ps=28
M1153 FA_magic_2/HA_magic_0/AND_magic_0/NOT_magic_0/in FA_magic_2/A VDD FA_magic_2/HA_magic_0/AND_magic_0/w_32_19# CMOSP w=8 l=2
+  ad=0 pd=0 as=0 ps=0
M1154 FA_magic_2/HA_magic_0/AND_magic_0/NOT_magic_0/in FA_magic_2/B FA_magic_2/HA_magic_0/AND_magic_0/NAND_magic_0/a_13_n12# Gnd CMOSN w=4 l=2
+  ad=20 pd=18 as=24 ps=20
M1155 FA_magic_2/HA_magic_0/AND_magic_0/NAND_magic_0/a_13_n12# FA_magic_2/A GND Gnd CMOSN w=4 l=2
+  ad=0 pd=0 as=0 ps=0
M1156 FA_magic_2/OR_magic_0/B FA_magic_2/HA_magic_0/AND_magic_0/NOT_magic_0/in VDD FA_magic_2/HA_magic_0/AND_magic_0/w_32_19# CMOSP w=8 l=2
+  ad=40 pd=26 as=0 ps=0
M1157 FA_magic_2/OR_magic_0/B FA_magic_2/HA_magic_0/AND_magic_0/NOT_magic_0/in GND Gnd CMOSN w=4 l=2
+  ad=20 pd=18 as=0 ps=0
M1158 VDD FA_magic_2/C FA_magic_2/HA_magic_1/XOR_magic_0/NAND_magic_3/A FA_magic_2/HA_magic_1/XOR_magic_0/NAND_magic_0/w_0_0# CMOSP w=8 l=2
+  ad=0 pd=0 as=48 ps=28
M1159 FA_magic_2/HA_magic_1/XOR_magic_0/NAND_magic_3/A FA_magic_2/HA_magic_1/A VDD FA_magic_2/HA_magic_1/XOR_magic_0/NAND_magic_0/w_0_0# CMOSP w=8 l=2
+  ad=0 pd=0 as=0 ps=0
M1160 FA_magic_2/HA_magic_1/XOR_magic_0/NAND_magic_3/A FA_magic_2/C FA_magic_2/HA_magic_1/XOR_magic_0/NAND_magic_0/a_13_n12# Gnd CMOSN w=4 l=2
+  ad=20 pd=18 as=24 ps=20
M1161 FA_magic_2/HA_magic_1/XOR_magic_0/NAND_magic_0/a_13_n12# FA_magic_2/HA_magic_1/A GND Gnd CMOSN w=4 l=2
+  ad=0 pd=0 as=0 ps=0
M1162 VDD FA_magic_2/HA_magic_1/XOR_magic_0/NAND_magic_3/A FA_magic_2/HA_magic_1/XOR_magic_0/NAND_magic_2/A FA_magic_2/HA_magic_1/XOR_magic_0/NAND_magic_1/w_0_0# CMOSP w=8 l=2
+  ad=0 pd=0 as=48 ps=28
M1163 FA_magic_2/HA_magic_1/XOR_magic_0/NAND_magic_2/A FA_magic_2/HA_magic_1/A VDD FA_magic_2/HA_magic_1/XOR_magic_0/NAND_magic_1/w_0_0# CMOSP w=8 l=2
+  ad=0 pd=0 as=0 ps=0
M1164 FA_magic_2/HA_magic_1/XOR_magic_0/NAND_magic_2/A FA_magic_2/HA_magic_1/XOR_magic_0/NAND_magic_3/A FA_magic_2/HA_magic_1/XOR_magic_0/NAND_magic_1/a_13_n12# Gnd CMOSN w=4 l=2
+  ad=20 pd=18 as=24 ps=20
M1165 FA_magic_2/HA_magic_1/XOR_magic_0/NAND_magic_1/a_13_n12# FA_magic_2/HA_magic_1/A GND Gnd CMOSN w=4 l=2
+  ad=0 pd=0 as=0 ps=0
M1166 VDD FA_magic_2/HA_magic_1/XOR_magic_0/NAND_magic_2/B FA_magic_6/A FA_magic_2/HA_magic_1/XOR_magic_0/NAND_magic_2/w_0_0# CMOSP w=8 l=2
+  ad=0 pd=0 as=48 ps=28
M1167 FA_magic_6/A FA_magic_2/HA_magic_1/XOR_magic_0/NAND_magic_2/A VDD FA_magic_2/HA_magic_1/XOR_magic_0/NAND_magic_2/w_0_0# CMOSP w=8 l=2
+  ad=0 pd=0 as=0 ps=0
M1168 FA_magic_6/A FA_magic_2/HA_magic_1/XOR_magic_0/NAND_magic_2/B FA_magic_2/HA_magic_1/XOR_magic_0/NAND_magic_2/a_13_n12# Gnd CMOSN w=4 l=2
+  ad=20 pd=18 as=24 ps=20
M1169 FA_magic_2/HA_magic_1/XOR_magic_0/NAND_magic_2/a_13_n12# FA_magic_2/HA_magic_1/XOR_magic_0/NAND_magic_2/A GND Gnd CMOSN w=4 l=2
+  ad=0 pd=0 as=0 ps=0
M1170 VDD FA_magic_2/C FA_magic_2/HA_magic_1/XOR_magic_0/NAND_magic_2/B FA_magic_2/HA_magic_1/XOR_magic_0/NAND_magic_3/w_0_0# CMOSP w=8 l=2
+  ad=0 pd=0 as=48 ps=28
M1171 FA_magic_2/HA_magic_1/XOR_magic_0/NAND_magic_2/B FA_magic_2/HA_magic_1/XOR_magic_0/NAND_magic_3/A VDD FA_magic_2/HA_magic_1/XOR_magic_0/NAND_magic_3/w_0_0# CMOSP w=8 l=2
+  ad=0 pd=0 as=0 ps=0
M1172 FA_magic_2/HA_magic_1/XOR_magic_0/NAND_magic_2/B FA_magic_2/C FA_magic_2/HA_magic_1/XOR_magic_0/NAND_magic_3/a_13_n12# Gnd CMOSN w=4 l=2
+  ad=20 pd=18 as=24 ps=20
M1173 FA_magic_2/HA_magic_1/XOR_magic_0/NAND_magic_3/a_13_n12# FA_magic_2/HA_magic_1/XOR_magic_0/NAND_magic_3/A GND Gnd CMOSN w=4 l=2
+  ad=0 pd=0 as=0 ps=0
M1174 VDD FA_magic_2/C FA_magic_2/HA_magic_1/AND_magic_0/NOT_magic_0/in FA_magic_2/HA_magic_1/AND_magic_0/w_32_19# CMOSP w=8 l=2
+  ad=0 pd=0 as=48 ps=28
M1175 FA_magic_2/HA_magic_1/AND_magic_0/NOT_magic_0/in FA_magic_2/HA_magic_1/A VDD FA_magic_2/HA_magic_1/AND_magic_0/w_32_19# CMOSP w=8 l=2
+  ad=0 pd=0 as=0 ps=0
M1176 FA_magic_2/HA_magic_1/AND_magic_0/NOT_magic_0/in FA_magic_2/C FA_magic_2/HA_magic_1/AND_magic_0/NAND_magic_0/a_13_n12# Gnd CMOSN w=4 l=2
+  ad=20 pd=18 as=24 ps=20
M1177 FA_magic_2/HA_magic_1/AND_magic_0/NAND_magic_0/a_13_n12# FA_magic_2/HA_magic_1/A GND Gnd CMOSN w=4 l=2
+  ad=0 pd=0 as=0 ps=0
M1178 FA_magic_2/OR_magic_0/A FA_magic_2/HA_magic_1/AND_magic_0/NOT_magic_0/in VDD FA_magic_2/HA_magic_1/AND_magic_0/w_32_19# CMOSP w=8 l=2
+  ad=40 pd=26 as=0 ps=0
M1179 FA_magic_2/OR_magic_0/A FA_magic_2/HA_magic_1/AND_magic_0/NOT_magic_0/in GND Gnd CMOSN w=4 l=2
+  ad=20 pd=18 as=0 ps=0
M1180 VDD B3 AND_magic_14/NOT_magic_0/in AND_magic_14/w_32_19# CMOSP w=8 l=2
+  ad=0 pd=0 as=48 ps=28
M1181 AND_magic_14/NOT_magic_0/in A2 VDD AND_magic_14/w_32_19# CMOSP w=8 l=2
+  ad=0 pd=0 as=0 ps=0
M1182 AND_magic_14/NOT_magic_0/in B3 AND_magic_14/NAND_magic_0/a_13_n12# Gnd CMOSN w=4 l=2
+  ad=20 pd=18 as=24 ps=20
M1183 AND_magic_14/NAND_magic_0/a_13_n12# A2 GND Gnd CMOSN w=4 l=2
+  ad=0 pd=0 as=0 ps=0
M1184 FA_magic_3/B AND_magic_14/NOT_magic_0/in VDD AND_magic_14/w_32_19# CMOSP w=8 l=2
+  ad=40 pd=26 as=0 ps=0
M1185 FA_magic_3/B AND_magic_14/NOT_magic_0/in GND Gnd CMOSN w=4 l=2
+  ad=20 pd=18 as=0 ps=0
M1186 VDD B1 AND_magic_1/NOT_magic_0/in AND_magic_1/w_32_19# CMOSP w=8 l=2
+  ad=0 pd=0 as=48 ps=28
M1187 AND_magic_1/NOT_magic_0/in A0 VDD AND_magic_1/w_32_19# CMOSP w=8 l=2
+  ad=0 pd=0 as=0 ps=0
M1188 AND_magic_1/NOT_magic_0/in B1 AND_magic_1/NAND_magic_0/a_13_n12# Gnd CMOSN w=4 l=2
+  ad=20 pd=18 as=24 ps=20
M1189 AND_magic_1/NAND_magic_0/a_13_n12# A0 GND Gnd CMOSN w=4 l=2
+  ad=0 pd=0 as=0 ps=0
M1190 HA_magic_0/A AND_magic_1/NOT_magic_0/in VDD AND_magic_1/w_32_19# CMOSP w=8 l=2
+  ad=40 pd=26 as=0 ps=0
M1191 HA_magic_0/A AND_magic_1/NOT_magic_0/in GND Gnd CMOSN w=4 l=2
+  ad=20 pd=18 as=0 ps=0
M1192 FA_magic_3/OR_magic_0/NOT_magic_0/in FA_magic_3/OR_magic_0/B FA_magic_3/OR_magic_0/NOR_magic_0/a_13_6# FA_magic_3/OR_magic_0/NOT_magic_0/w_0_0# CMOSP w=8 l=2
+  ad=40 pd=26 as=48 ps=28
M1193 FA_magic_3/OR_magic_0/NOR_magic_0/a_13_6# FA_magic_3/OR_magic_0/A VDD FA_magic_3/OR_magic_0/NOT_magic_0/w_0_0# CMOSP w=8 l=2
+  ad=0 pd=0 as=0 ps=0
M1194 GND FA_magic_3/OR_magic_0/B FA_magic_3/OR_magic_0/NOT_magic_0/in Gnd CMOSN w=4 l=2
+  ad=0 pd=0 as=24 ps=20
M1195 FA_magic_3/OR_magic_0/NOT_magic_0/in FA_magic_3/OR_magic_0/A GND Gnd CMOSN w=4 l=2
+  ad=0 pd=0 as=0 ps=0
M1196 FA_magic_4/A FA_magic_3/OR_magic_0/NOT_magic_0/in VDD FA_magic_3/OR_magic_0/NOT_magic_0/w_0_0# CMOSP w=8 l=2
+  ad=40 pd=26 as=0 ps=0
M1197 FA_magic_4/A FA_magic_3/OR_magic_0/NOT_magic_0/in GND Gnd CMOSN w=4 l=2
+  ad=20 pd=18 as=0 ps=0
M1198 VDD FA_magic_3/B FA_magic_3/HA_magic_0/XOR_magic_0/NAND_magic_3/A FA_magic_3/HA_magic_0/XOR_magic_0/NAND_magic_0/w_0_0# CMOSP w=8 l=2
+  ad=0 pd=0 as=48 ps=28
M1199 FA_magic_3/HA_magic_0/XOR_magic_0/NAND_magic_3/A FA_magic_3/A VDD FA_magic_3/HA_magic_0/XOR_magic_0/NAND_magic_0/w_0_0# CMOSP w=8 l=2
+  ad=0 pd=0 as=0 ps=0
M1200 FA_magic_3/HA_magic_0/XOR_magic_0/NAND_magic_3/A FA_magic_3/B FA_magic_3/HA_magic_0/XOR_magic_0/NAND_magic_0/a_13_n12# Gnd CMOSN w=4 l=2
+  ad=20 pd=18 as=24 ps=20
M1201 FA_magic_3/HA_magic_0/XOR_magic_0/NAND_magic_0/a_13_n12# FA_magic_3/A GND Gnd CMOSN w=4 l=2
+  ad=0 pd=0 as=0 ps=0